---- qbsp / ericw-tools v0.18.1 ----
Input file: Chaos.map
Output file: Chaos.bsp

---- LoadMapFile ----
         2306 faces
          358 brushes
          133 entities
            7 unique texnames
          611 texinfo

Opened WAD: C:/Users/lukea/Desktop/Quake-Multiplayer-Level/wads/START.WAD
Opened WAD: C:/Users/lukea/Desktop/Quake-Multiplayer-Level/wads/prototype_1_2.wad
Processing hull 0...
---- Brush_LoadEntity ----
          344 brushes
          692 planes
---- CSGFaces ----
         2222 brushfaces
         3997 csgfaces
         3026 mergedfaces
---- SolidBSP ----
         3527 split nodes
         1476 solid leafs
         1984 empty leafs
           68 water leafs
            0 detail leafs
            0 detail illusionary leafs
            0 detail fence leafs
            0 illusionary visblocker leafs
         7404 leaffaces
         6320 nodefaces
---- Portalize ----
         2052 vis leafs
         2052 vis clusters
         5982 vis portals
---- FillOutside ----
         1091 outleafs
---- MergeAll ----
         2134 mergefaces
---- SolidBSP ----
         1056 split nodes
          460 solid leafs
          531 empty leafs
           66 water leafs
            0 detail leafs
            0 detail illusionary leafs
            0 detail fence leafs
            0 illusionary visblocker leafs
         3694 leaffaces
         2409 nodefaces
---- Portalize ----
          597 vis leafs
          597 vis clusters
         1793 vis portals
---- Tjunc ----
         2532 world edges
         8341 edge points
         2280 edges added by tjunctions
            0 faces added by tjunctions
---- MakeFaceEdges ----
---- GrowRegions ----
Processing hull 1...
Processing hull 2...
*** WARNING 16: Texture __TB_empty not found
---- WriteBSPFile ----
Wrote Chaos.bsp
         1274 planes            25480
         3130 vertexes          37560
         1056 nodes             25344
          355 texinfo           14200
         2409 faces             48180
         2277 clipnodes         18216
          598 leafs             16744
         3694 marksurfaces       7388
        11562 surfedges         46248
         5782 edges             23128
            7 textures          98192
              lightdata             0
              visdata               0
              entdata           10327

0.441 seconds elapsed
Peak memory usage: 24261960 (23.1M)
