---- qbsp / ericw-tools v0.18.1 ----
Input file: Chaos.map
Output file: Chaos.bsp

---- LoadMapFile ----
         1676 faces
          269 brushes
          126 entities
            6 unique texnames
          417 texinfo

Opened WAD: C:/Users/lukea/Desktop/Quake-Multiplayer-Level/wads/START.WAD
Opened WAD: C:/Users/lukea/Desktop/Quake-Multiplayer-Level/wads/prototype_1_2.wad
Processing hull 0...
---- Brush_LoadEntity ----
          269 brushes
          413 planes
---- CSGFaces ----
         1676 brushfaces
         2878 csgfaces
         2194 mergedfaces
---- SolidBSP ----
         2639 split nodes
         1115 solid leafs
         1469 empty leafs
           56 water leafs
            0 detail leafs
            0 detail illusionary leafs
            0 detail fence leafs
            0 illusionary visblocker leafs
         5645 leaffaces
         4780 nodefaces
---- Portalize ----
         1525 vis leafs
         1525 vis clusters
         4109 vis portals
---- FillOutside ----
          915 outleafs
---- MergeAll ----
         1451 mergefaces
---- SolidBSP ----
          671 split nodes
          326 solid leafs
          285 empty leafs
           61 water leafs
            0 detail leafs
            0 detail illusionary leafs
            0 detail fence leafs
            0 illusionary visblocker leafs
         2524 leaffaces
         1663 nodefaces
---- Portalize ----
          346 vis leafs
          346 vis clusters
          747 vis portals
---- Tjunc ----
         1644 world edges
         5554 edge points
         1582 edges added by tjunctions
            0 faces added by tjunctions
---- MakeFaceEdges ----
---- GrowRegions ----
Processing hull 1...
*** WARNING 19: No entities in empty space -- no filling performed (hull 1)
Processing hull 2...
*** WARNING 19: No entities in empty space -- no filling performed (hull 2)
*** WARNING 16: Texture __TB_empty not found
---- WriteBSPFile ----
Wrote Chaos.bsp
          870 planes            17400
         2074 vertexes          24888
          671 nodes             16104
          228 texinfo            9120
         1663 faces             33260
         5505 clipnodes         44040
          347 leafs              9716
         2524 marksurfaces       5048
         7868 surfedges         31472
         3939 edges             15756
            6 textures          92708
              lightdata             0
              visdata               0
              entdata            9563

0.321 seconds elapsed
Peak memory usage: 20129600 (19.2M)
