---- qbsp / ericw-tools v0.18.1 ----
Input file: Chaos.map
Output file: Chaos.bsp

---- LoadMapFile ----
         2268 faces
          351 brushes
          133 entities
           14 unique texnames
          766 texinfo

Opened WAD: C:/Users/lukea/Desktop/Quake-Multiplayer-Level/wads/START.WAD
Opened WAD: C:/Users/lukea/Desktop/Quake-Multiplayer-Level/wads/prototype_1_2.wad
Processing hull 0...
---- Brush_LoadEntity ----
          337 brushes
          687 planes
---- CSGFaces ----
         2184 brushfaces
         3980 csgfaces
         3028 mergedfaces
---- SolidBSP ----
         3531 split nodes
         1477 solid leafs
         1987 empty leafs
           68 water leafs
            0 detail leafs
            0 detail illusionary leafs
            0 detail fence leafs
            0 illusionary visblocker leafs
         7354 leaffaces
         6297 nodefaces
---- Portalize ----
         2055 vis leafs
         2055 vis clusters
         6011 vis portals
---- FillOutside ----
          297 outleafs
---- MergeAll ----
         3084 mergefaces
---- SolidBSP ----
         1636 split nodes
          640 solid leafs
          932 empty leafs
           65 water leafs
            0 detail leafs
            0 detail illusionary leafs
            0 detail fence leafs
            0 illusionary visblocker leafs
         5302 leaffaces
         3764 nodefaces
---- Portalize ----
          997 vis leafs
          997 vis clusters
         3160 vis portals
---- Tjunc ----
         3553 world edges
        12881 edge points
         3412 edges added by tjunctions
            0 faces added by tjunctions
---- MakeFaceEdges ----
---- GrowRegions ----
Processing hull 1...
Processing hull 2...
*** WARNING 16: Texture __TB_empty not found
---- WriteBSPFile ----
Wrote Chaos.bsp
         1323 planes            26460
         4889 vertexes          58668
         1636 nodes             39264
          547 texinfo           21880
         3764 faces             75280
         2368 clipnodes         18944
          998 leafs             27944
         5302 marksurfaces      10604
        18105 surfedges         72420
         9055 edges             36220
           14 textures         141956
              lightdata             0
              visdata               0
              entdata           10327

0.500 seconds elapsed
Peak memory usage: 26927356 (25.7M)
