---- qbsp / ericw-tools v0.18.1 ----
Input file: Chaos.map
Output file: Chaos.bsp

---- LoadMapFile ----
         1050 faces
          175 brushes
           96 entities
            6 unique texnames
          203 texinfo

Opened WAD: C:/Users/lukea/Desktop/Quake-Multiplayer-Level/wads/START.WAD
Opened WAD: C:/Users/lukea/Desktop/Quake-Multiplayer-Level/wads/prototype_1_2.wad
Processing hull 0...
---- Brush_LoadEntity ----
          175 brushes
          160 planes
---- CSGFaces ----
         1050 brushfaces
         1208 csgfaces
         1119 mergedfaces
---- SolidBSP ----
         1903 split nodes
          865 solid leafs
         1018 empty leafs
           21 water leafs
            0 detail leafs
            0 detail illusionary leafs
            0 detail fence leafs
            0 illusionary visblocker leafs
         3312 leaffaces
         3100 nodefaces
---- Portalize ----
         1039 vis leafs
         1039 vis clusters
         2686 vis portals
---- FillOutside ----
          791 outleafs
---- MergeAll ----
          594 mergefaces
---- SolidBSP ----
          386 split nodes
          245 solid leafs
          128 empty leafs
           14 water leafs
            0 detail leafs
            0 detail illusionary leafs
            0 detail fence leafs
            0 illusionary visblocker leafs
          879 leaffaces
          712 nodefaces
---- Portalize ----
          142 vis leafs
          142 vis clusters
          258 vis portals
---- Tjunc ----
          739 world edges
         2542 edge points
          668 edges added by tjunctions
            0 faces added by tjunctions
---- MakeFaceEdges ----
---- GrowRegions ----
Processing hull 1...
*** WARNING 19: No entities in empty space -- no filling performed (hull 1)
Processing hull 2...
*** WARNING 19: No entities in empty space -- no filling performed (hull 2)
*** WARNING 16: Texture __TB_empty not found
---- WriteBSPFile ----
Wrote Chaos.bsp
          258 planes             5160
          955 vertexes          11460
          386 nodes              9264
           95 texinfo            3800
          712 faces             14240
         3757 clipnodes         30056
          143 leafs              4004
          879 marksurfaces       1758
         3510 surfedges         14040
         1756 edges              7024
            6 textures          92708
              lightdata             0
              visdata               0
              entdata            5942

0.197 seconds elapsed
Peak memory usage: 12133518 (11.6M)
