---- qbsp / ericw-tools v0.18.1 ----
Input file: Chaos.map
Output file: Chaos.bsp

---- LoadMapFile ----
         1050 faces
          175 brushes
           94 entities
            6 unique texnames
          203 texinfo

Opened WAD: C:/Users/lukea/Desktop/Quake-Multiplayer-Level/wads/START.WAD
Opened WAD: C:/Users/lukea/Desktop/Quake-Multiplayer-Level/wads/prototype_1_2.wad
Processing hull 0...
---- Brush_LoadEntity ----
          175 brushes
          158 planes
---- CSGFaces ----
         1050 brushfaces
         1204 csgfaces
         1115 mergedfaces
---- SolidBSP ----
         1908 split nodes
          868 solid leafs
         1020 empty leafs
           21 water leafs
            0 detail leafs
            0 detail illusionary leafs
            0 detail fence leafs
            0 illusionary visblocker leafs
         3299 leaffaces
         3085 nodefaces
---- Portalize ----
         1041 vis leafs
         1041 vis clusters
         2679 vis portals
---- FillOutside ----
          792 outleafs
---- MergeAll ----
          594 mergefaces
---- SolidBSP ----
          391 split nodes
          250 solid leafs
          128 empty leafs
           14 water leafs
            0 detail leafs
            0 detail illusionary leafs
            0 detail fence leafs
            0 illusionary visblocker leafs
          874 leaffaces
          712 nodefaces
---- Portalize ----
          142 vis leafs
          142 vis clusters
          256 vis portals
---- Tjunc ----
          734 world edges
         2544 edge points
          670 edges added by tjunctions
            0 faces added by tjunctions
---- MakeFaceEdges ----
---- GrowRegions ----
Processing hull 1...
*** WARNING 19: No entities in empty space -- no filling performed (hull 1)
Processing hull 2...
*** WARNING 19: No entities in empty space -- no filling performed (hull 2)
*** WARNING 16: Texture __TB_empty not found
---- WriteBSPFile ----
Wrote Chaos.bsp
          258 planes             5160
          956 vertexes          11472
          391 nodes              9384
           96 texinfo            3840
          712 faces             14240
         3755 clipnodes         30040
          143 leafs              4004
          874 marksurfaces       1748
         3512 surfedges         14048
         1757 edges              7028
            6 textures          93156
              lightdata             0
              visdata               0
              entdata            5837

0.210 seconds elapsed
Peak memory usage: 12122816 (11.6M)
