---- qbsp / ericw-tools v0.18.1 ----
Input file: Chaos.map
Output file: Chaos.bsp

---- LoadMapFile ----
         1038 faces
          173 brushes
           92 entities
            5 unique texnames
          192 texinfo

Opened WAD: C:/Users/lukea/Desktop/Quake-Multiplayer-Level/wads/START.WAD
Opened WAD: C:/Users/lukea/Desktop/Quake-Multiplayer-Level/wads/prototype_1_2.wad
Processing hull 0...
---- Brush_LoadEntity ----
          173 brushes
          152 planes
---- CSGFaces ----
         1038 brushfaces
         1148 csgfaces
         1069 mergedfaces
---- SolidBSP ----
         1762 split nodes
          805 solid leafs
          931 empty leafs
           27 water leafs
            0 detail leafs
            0 detail illusionary leafs
            0 detail fence leafs
            0 illusionary visblocker leafs
         3166 leaffaces
         2978 nodefaces
---- Portalize ----
          958 vis leafs
          958 vis clusters
         2423 vis portals
---- FillOutside ----
          730 outleafs
---- MergeAll ----
          553 mergefaces
---- SolidBSP ----
          375 split nodes
          242 solid leafs
          116 empty leafs
           18 water leafs
            0 detail leafs
            0 detail illusionary leafs
            0 detail fence leafs
            0 illusionary visblocker leafs
          807 leaffaces
          662 nodefaces
---- Portalize ----
          134 vis leafs
          134 vis clusters
          241 vis portals
---- Tjunc ----
          677 world edges
         2330 edge points
          604 edges added by tjunctions
            0 faces added by tjunctions
---- MakeFaceEdges ----
---- GrowRegions ----
Processing hull 1...
*** WARNING 19: No entities in empty space -- no filling performed (hull 1)
Processing hull 2...
*** WARNING 19: No entities in empty space -- no filling performed (hull 2)
*** WARNING 16: Texture __TB_empty not found
---- WriteBSPFile ----
Wrote Chaos.bsp
          254 planes             5080
          870 vertexes          10440
          375 nodes              9000
           91 texinfo            3640
          662 faces             13240
         3526 clipnodes         28208
          135 leafs              3780
          807 marksurfaces       1614
         3248 surfedges         12992
         1625 edges              6500
            5 textures          71352
              lightdata             0
              visdata               0
              entdata            5690

0.254 seconds elapsed
Peak memory usage: 11596926 (11.1M)
